
---------- Begin Simulation Statistics ----------
simSeconds                                  16.354701                       # Number of seconds simulated (Second)
simTicks                                 16354700548000                       # Number of ticks simulated (Tick)
finalTick                                16354700548000                       # Number of ticks from beginning of simulation (restored from checkpoints and never reset) (Tick)
simFreq                                  1000000000000                       # The number of ticks per simulated second ((Tick/Second))
hostSeconds                                   1037.62                       # Real time elapsed on the host (Second)
hostTickRate                              15761762457                       # The number of ticks simulated per host second (ticks/s) ((Tick/Second))
hostMemory                                    9595948                       # Number of bytes of host memory used (Byte)
simInsts                                       498611                       # Number of instructions simulated (Count)
simOps                                         614236                       # Number of ops (including micro ops) simulated (Count)
hostInstRate                                      481                       # Simulator instruction rate (inst/s) ((Count/Second))
hostOpRate                                        592                       # Simulator op (including micro ops) rate (op/s) ((Count/Second))
system.bridge.power_state.pwrStateResidencyTicks::UNDEFINED 16354700548000                       # Cumulative time (in ticks) in various power states (Tick)
system.clk_domain.clock                          1000                       # Clock period in ticks (Tick)
system.cpu.numCycles                      16354700548                       # Number of cpu cycles simulated (Cycle)
system.cpu.cpi                           32662.562981                       # CPI: cycles per instruction (core level) ((Cycle/Count))
system.cpu.ipc                               0.000031                       # IPC: instructions per cycle (core level) ((Count/Cycle))
system.cpu.numWorkItemsStarted                      0                       # Number of work items this cpu started (Count)
system.cpu.numWorkItemsCompleted                    0                       # Number of work items this cpu completed (Count)
system.cpu.commitStats0.numInsts               500717                       # Number of instructions committed (thread level) (Count)
system.cpu.commitStats0.numOps                 617184                       # Number of ops (including micro ops) committed (thread level) (Count)
system.cpu.commitStats0.numInstsNotNOP              0                       # Number of instructions committed excluding NOPs or prefetches (Count)
system.cpu.commitStats0.numOpsNotNOP                0                       # Number of Ops (including micro ops) Simulated (Count)
system.cpu.commitStats0.cpi              32662.562981                       # CPI: cycles per instruction (thread level) ((Cycle/Count))
system.cpu.commitStats0.ipc                  0.000031                       # IPC: instructions per cycle (thread level) ((Count/Cycle))
system.cpu.commitStats0.numMemRefs                  0                       # Number of memory references committed (Count)
system.cpu.commitStats0.numFpInsts                  0                       # Number of float instructions (Count)
system.cpu.commitStats0.numIntInsts            518530                       # Number of integer instructions (Count)
system.cpu.commitStats0.numLoadInsts            95308                       # Number of load instructions (Count)
system.cpu.commitStats0.numStoreInsts           90126                       # Number of store instructions (Count)
system.cpu.commitStats0.numVecInsts                 0                       # Number of vector instructions (Count)
system.cpu.commitStats0.committedInstType::No_OpClass            0      0.00%      0.00% # Class of committed instruction. (Count)
system.cpu.commitStats0.committedInstType::IntAlu       431457     69.91%     69.91% # Class of committed instruction. (Count)
system.cpu.commitStats0.committedInstType::IntMult          293      0.05%     69.95% # Class of committed instruction. (Count)
system.cpu.commitStats0.committedInstType::IntDiv            0      0.00%     69.95% # Class of committed instruction. (Count)
system.cpu.commitStats0.committedInstType::FloatAdd            0      0.00%     69.95% # Class of committed instruction. (Count)
system.cpu.commitStats0.committedInstType::FloatCmp            0      0.00%     69.95% # Class of committed instruction. (Count)
system.cpu.commitStats0.committedInstType::FloatCvt            0      0.00%     69.95% # Class of committed instruction. (Count)
system.cpu.commitStats0.committedInstType::FloatMult            0      0.00%     69.95% # Class of committed instruction. (Count)
system.cpu.commitStats0.committedInstType::FloatMultAcc            0      0.00%     69.95% # Class of committed instruction. (Count)
system.cpu.commitStats0.committedInstType::FloatDiv            0      0.00%     69.95% # Class of committed instruction. (Count)
system.cpu.commitStats0.committedInstType::FloatMisc            0      0.00%     69.95% # Class of committed instruction. (Count)
system.cpu.commitStats0.committedInstType::FloatSqrt            0      0.00%     69.95% # Class of committed instruction. (Count)
system.cpu.commitStats0.committedInstType::SimdAdd            0      0.00%     69.95% # Class of committed instruction. (Count)
system.cpu.commitStats0.committedInstType::SimdAddAcc            0      0.00%     69.95% # Class of committed instruction. (Count)
system.cpu.commitStats0.committedInstType::SimdAlu            0      0.00%     69.95% # Class of committed instruction. (Count)
system.cpu.commitStats0.committedInstType::SimdCmp            0      0.00%     69.95% # Class of committed instruction. (Count)
system.cpu.commitStats0.committedInstType::SimdCvt            0      0.00%     69.95% # Class of committed instruction. (Count)
system.cpu.commitStats0.committedInstType::SimdMisc            0      0.00%     69.95% # Class of committed instruction. (Count)
system.cpu.commitStats0.committedInstType::SimdMult            0      0.00%     69.95% # Class of committed instruction. (Count)
system.cpu.commitStats0.committedInstType::SimdMultAcc            0      0.00%     69.95% # Class of committed instruction. (Count)
system.cpu.commitStats0.committedInstType::SimdMatMultAcc            0      0.00%     69.95% # Class of committed instruction. (Count)
system.cpu.commitStats0.committedInstType::SimdShift            0      0.00%     69.95% # Class of committed instruction. (Count)
system.cpu.commitStats0.committedInstType::SimdShiftAcc            0      0.00%     69.95% # Class of committed instruction. (Count)
system.cpu.commitStats0.committedInstType::SimdDiv            0      0.00%     69.95% # Class of committed instruction. (Count)
system.cpu.commitStats0.committedInstType::SimdSqrt            0      0.00%     69.95% # Class of committed instruction. (Count)
system.cpu.commitStats0.committedInstType::SimdFloatAdd            0      0.00%     69.95% # Class of committed instruction. (Count)
system.cpu.commitStats0.committedInstType::SimdFloatAlu            0      0.00%     69.95% # Class of committed instruction. (Count)
system.cpu.commitStats0.committedInstType::SimdFloatCmp            0      0.00%     69.95% # Class of committed instruction. (Count)
system.cpu.commitStats0.committedInstType::SimdFloatCvt            0      0.00%     69.95% # Class of committed instruction. (Count)
system.cpu.commitStats0.committedInstType::SimdFloatDiv            0      0.00%     69.95% # Class of committed instruction. (Count)
system.cpu.commitStats0.committedInstType::SimdFloatMisc            0      0.00%     69.95% # Class of committed instruction. (Count)
system.cpu.commitStats0.committedInstType::SimdFloatMult            0      0.00%     69.95% # Class of committed instruction. (Count)
system.cpu.commitStats0.committedInstType::SimdFloatMultAcc            0      0.00%     69.95% # Class of committed instruction. (Count)
system.cpu.commitStats0.committedInstType::SimdFloatMatMultAcc            0      0.00%     69.95% # Class of committed instruction. (Count)
system.cpu.commitStats0.committedInstType::SimdFloatSqrt            0      0.00%     69.95% # Class of committed instruction. (Count)
system.cpu.commitStats0.committedInstType::SimdReduceAdd            0      0.00%     69.95% # Class of committed instruction. (Count)
system.cpu.commitStats0.committedInstType::SimdReduceAlu            0      0.00%     69.95% # Class of committed instruction. (Count)
system.cpu.commitStats0.committedInstType::SimdReduceCmp            0      0.00%     69.95% # Class of committed instruction. (Count)
system.cpu.commitStats0.committedInstType::SimdFloatReduceAdd            0      0.00%     69.95% # Class of committed instruction. (Count)
system.cpu.commitStats0.committedInstType::SimdFloatReduceCmp            0      0.00%     69.95% # Class of committed instruction. (Count)
system.cpu.commitStats0.committedInstType::SimdAes            0      0.00%     69.95% # Class of committed instruction. (Count)
system.cpu.commitStats0.committedInstType::SimdAesMix            0      0.00%     69.95% # Class of committed instruction. (Count)
system.cpu.commitStats0.committedInstType::SimdSha1Hash            0      0.00%     69.95% # Class of committed instruction. (Count)
system.cpu.commitStats0.committedInstType::SimdSha1Hash2            0      0.00%     69.95% # Class of committed instruction. (Count)
system.cpu.commitStats0.committedInstType::SimdSha256Hash            0      0.00%     69.95% # Class of committed instruction. (Count)
system.cpu.commitStats0.committedInstType::SimdSha256Hash2            0      0.00%     69.95% # Class of committed instruction. (Count)
system.cpu.commitStats0.committedInstType::SimdShaSigma2            0      0.00%     69.95% # Class of committed instruction. (Count)
system.cpu.commitStats0.committedInstType::SimdShaSigma3            0      0.00%     69.95% # Class of committed instruction. (Count)
system.cpu.commitStats0.committedInstType::SimdPredAlu            0      0.00%     69.95% # Class of committed instruction. (Count)
system.cpu.commitStats0.committedInstType::Matrix            0      0.00%     69.95% # Class of committed instruction. (Count)
system.cpu.commitStats0.committedInstType::MatrixMov            0      0.00%     69.95% # Class of committed instruction. (Count)
system.cpu.commitStats0.committedInstType::MatrixOP            0      0.00%     69.95% # Class of committed instruction. (Count)
system.cpu.commitStats0.committedInstType::MemRead        95308     15.44%     85.40% # Class of committed instruction. (Count)
system.cpu.commitStats0.committedInstType::MemWrite        90126     14.60%    100.00% # Class of committed instruction. (Count)
system.cpu.commitStats0.committedInstType::FloatMemRead            0      0.00%    100.00% # Class of committed instruction. (Count)
system.cpu.commitStats0.committedInstType::FloatMemWrite            0      0.00%    100.00% # Class of committed instruction. (Count)
system.cpu.commitStats0.committedInstType::IprAccess            0      0.00%    100.00% # Class of committed instruction. (Count)
system.cpu.commitStats0.committedInstType::InstPrefetch            0      0.00%    100.00% # Class of committed instruction. (Count)
system.cpu.commitStats0.committedInstType::VectorUnitStrideLoad            0      0.00%    100.00% # Class of committed instruction. (Count)
system.cpu.commitStats0.committedInstType::VectorUnitStrideStore            0      0.00%    100.00% # Class of committed instruction. (Count)
system.cpu.commitStats0.committedInstType::VectorUnitStrideMaskLoad            0      0.00%    100.00% # Class of committed instruction. (Count)
system.cpu.commitStats0.committedInstType::VectorUnitStrideMaskStore            0      0.00%    100.00% # Class of committed instruction. (Count)
system.cpu.commitStats0.committedInstType::VectorStridedLoad            0      0.00%    100.00% # Class of committed instruction. (Count)
system.cpu.commitStats0.committedInstType::VectorStridedStore            0      0.00%    100.00% # Class of committed instruction. (Count)
system.cpu.commitStats0.committedInstType::VectorIndexedLoad            0      0.00%    100.00% # Class of committed instruction. (Count)
system.cpu.commitStats0.committedInstType::VectorIndexedStore            0      0.00%    100.00% # Class of committed instruction. (Count)
system.cpu.commitStats0.committedInstType::VectorUnitStrideFaultOnlyFirstLoad            0      0.00%    100.00% # Class of committed instruction. (Count)
system.cpu.commitStats0.committedInstType::VectorWholeRegisterLoad            0      0.00%    100.00% # Class of committed instruction. (Count)
system.cpu.commitStats0.committedInstType::VectorWholeRegisterStore            0      0.00%    100.00% # Class of committed instruction. (Count)
system.cpu.commitStats0.committedInstType::VectorIntegerArith            0      0.00%    100.00% # Class of committed instruction. (Count)
system.cpu.commitStats0.committedInstType::VectorFloatArith            0      0.00%    100.00% # Class of committed instruction. (Count)
system.cpu.commitStats0.committedInstType::VectorFloatConvert            0      0.00%    100.00% # Class of committed instruction. (Count)
system.cpu.commitStats0.committedInstType::VectorIntegerReduce            0      0.00%    100.00% # Class of committed instruction. (Count)
system.cpu.commitStats0.committedInstType::VectorFloatReduce            0      0.00%    100.00% # Class of committed instruction. (Count)
system.cpu.commitStats0.committedInstType::VectorMisc            0      0.00%    100.00% # Class of committed instruction. (Count)
system.cpu.commitStats0.committedInstType::VectorIntegerExtension            0      0.00%    100.00% # Class of committed instruction. (Count)
system.cpu.commitStats0.committedInstType::VectorConfig            0      0.00%    100.00% # Class of committed instruction. (Count)
system.cpu.commitStats0.committedInstType::total       617184                       # Class of committed instruction. (Count)
system.cpu.commitStats0.committedControl::IsControl       126236                       # Class of control type instructions committed (Count)
system.cpu.commitStats0.committedControl::IsDirectControl       110477                       # Class of control type instructions committed (Count)
system.cpu.commitStats0.committedControl::IsIndirectControl        15742                       # Class of control type instructions committed (Count)
system.cpu.commitStats0.committedControl::IsCondControl        95685                       # Class of control type instructions committed (Count)
system.cpu.commitStats0.committedControl::IsUncondControl        30534                       # Class of control type instructions committed (Count)
system.cpu.commitStats0.committedControl::IsCall        12798                       # Class of control type instructions committed (Count)
system.cpu.commitStats0.committedControl::IsReturn        13885                       # Class of control type instructions committed (Count)
system.cpu.dcache.demandHits::cpu.data         172266                       # number of demand (read+write) hits (Count)
system.cpu.dcache.demandHits::total            172266                       # number of demand (read+write) hits (Count)
system.cpu.dcache.overallHits::cpu.data        172503                       # number of overall hits (Count)
system.cpu.dcache.overallHits::total           172503                       # number of overall hits (Count)
system.cpu.dcache.demandMisses::cpu.data         3505                       # number of demand (read+write) misses (Count)
system.cpu.dcache.demandMisses::total            3505                       # number of demand (read+write) misses (Count)
system.cpu.dcache.overallMisses::cpu.data         3508                       # number of overall misses (Count)
system.cpu.dcache.overallMisses::total           3508                       # number of overall misses (Count)
system.cpu.dcache.demandMissLatency::cpu.data    214324000                       # number of demand (read+write) miss ticks (Tick)
system.cpu.dcache.demandMissLatency::total    214324000                       # number of demand (read+write) miss ticks (Tick)
system.cpu.dcache.overallMissLatency::cpu.data    214324000                       # number of overall miss ticks (Tick)
system.cpu.dcache.overallMissLatency::total    214324000                       # number of overall miss ticks (Tick)
system.cpu.dcache.demandAccesses::cpu.data       175771                       # number of demand (read+write) accesses (Count)
system.cpu.dcache.demandAccesses::total        175771                       # number of demand (read+write) accesses (Count)
system.cpu.dcache.overallAccesses::cpu.data       176011                       # number of overall (read+write) accesses (Count)
system.cpu.dcache.overallAccesses::total       176011                       # number of overall (read+write) accesses (Count)
system.cpu.dcache.demandMissRate::cpu.data     0.019941                       # miss rate for demand accesses (Ratio)
system.cpu.dcache.demandMissRate::total      0.019941                       # miss rate for demand accesses (Ratio)
system.cpu.dcache.overallMissRate::cpu.data     0.019931                       # miss rate for overall accesses (Ratio)
system.cpu.dcache.overallMissRate::total     0.019931                       # miss rate for overall accesses (Ratio)
system.cpu.dcache.demandAvgMissLatency::cpu.data 61148.074180                       # average overall miss latency in ticks ((Tick/Count))
system.cpu.dcache.demandAvgMissLatency::total 61148.074180                       # average overall miss latency in ticks ((Tick/Count))
system.cpu.dcache.overallAvgMissLatency::cpu.data 61095.781072                       # average overall miss latency ((Tick/Count))
system.cpu.dcache.overallAvgMissLatency::total 61095.781072                       # average overall miss latency ((Tick/Count))
system.cpu.dcache.blockedCycles::no_mshrs            0                       # number of cycles access was blocked (Cycle)
system.cpu.dcache.blockedCycles::no_targets            0                       # number of cycles access was blocked (Cycle)
system.cpu.dcache.blockedCauses::no_mshrs            0                       # number of times access was blocked (Count)
system.cpu.dcache.blockedCauses::no_targets            0                       # number of times access was blocked (Count)
system.cpu.dcache.avgBlocked::no_mshrs            nan                       # average number of cycles each access was blocked ((Cycle/Count))
system.cpu.dcache.avgBlocked::no_targets          nan                       # average number of cycles each access was blocked ((Cycle/Count))
system.cpu.dcache.writebacks::writebacks         2415                       # number of writebacks (Count)
system.cpu.dcache.writebacks::total              2415                       # number of writebacks (Count)
system.cpu.dcache.demandMshrMisses::cpu.data         3505                       # number of demand (read+write) MSHR misses (Count)
system.cpu.dcache.demandMshrMisses::total         3505                       # number of demand (read+write) MSHR misses (Count)
system.cpu.dcache.overallMshrMisses::cpu.data         3508                       # number of overall MSHR misses (Count)
system.cpu.dcache.overallMshrMisses::total         3508                       # number of overall MSHR misses (Count)
system.cpu.dcache.overallMshrUncacheable::cpu.data         6607                       # number of overall MSHR uncacheable misses (Count)
system.cpu.dcache.overallMshrUncacheable::total         6607                       # number of overall MSHR uncacheable misses (Count)
system.cpu.dcache.demandMshrMissLatency::cpu.data    207314000                       # number of demand (read+write) MSHR miss ticks (Tick)
system.cpu.dcache.demandMshrMissLatency::total    207314000                       # number of demand (read+write) MSHR miss ticks (Tick)
system.cpu.dcache.overallMshrMissLatency::cpu.data    207478000                       # number of overall MSHR miss ticks (Tick)
system.cpu.dcache.overallMshrMissLatency::total    207478000                       # number of overall MSHR miss ticks (Tick)
system.cpu.dcache.overallMshrUncacheableLatency::cpu.data    305699000                       # number of overall MSHR uncacheable ticks (Tick)
system.cpu.dcache.overallMshrUncacheableLatency::total    305699000                       # number of overall MSHR uncacheable ticks (Tick)
system.cpu.dcache.demandMshrMissRate::cpu.data     0.019941                       # mshr miss ratio for demand accesses (Ratio)
system.cpu.dcache.demandMshrMissRate::total     0.019941                       # mshr miss ratio for demand accesses (Ratio)
system.cpu.dcache.overallMshrMissRate::cpu.data     0.019931                       # mshr miss ratio for overall accesses (Ratio)
system.cpu.dcache.overallMshrMissRate::total     0.019931                       # mshr miss ratio for overall accesses (Ratio)
system.cpu.dcache.demandAvgMshrMissLatency::cpu.data 59148.074180                       # average overall mshr miss latency ((Tick/Count))
system.cpu.dcache.demandAvgMshrMissLatency::total 59148.074180                       # average overall mshr miss latency ((Tick/Count))
system.cpu.dcache.overallAvgMshrMissLatency::cpu.data 59144.241733                       # average overall mshr miss latency ((Tick/Count))
system.cpu.dcache.overallAvgMshrMissLatency::total 59144.241733                       # average overall mshr miss latency ((Tick/Count))
system.cpu.dcache.overallAvgMshrUncacheableLatency::cpu.data 46268.957167                       # average overall mshr uncacheable latency ((Tick/Count))
system.cpu.dcache.overallAvgMshrUncacheableLatency::total 46268.957167                       # average overall mshr uncacheable latency ((Tick/Count))
system.cpu.dcache.replacements                   2484                       # number of replacements (Count)
system.cpu.dcache.CleanSharedReq.missLatency::cpu.data        24000                       # number of CleanSharedReq miss ticks (Tick)
system.cpu.dcache.CleanSharedReq.missLatency::total        24000                       # number of CleanSharedReq miss ticks (Tick)
system.cpu.dcache.CleanSharedReq.avgMissLatency::cpu.data          inf                       # average CleanSharedReq miss latency ((Tick/Count))
system.cpu.dcache.CleanSharedReq.avgMissLatency::total          inf                       # average CleanSharedReq miss latency ((Tick/Count))
system.cpu.dcache.CleanSharedReq.mshrMisses::cpu.data            2                       # number of CleanSharedReq MSHR misses (Count)
system.cpu.dcache.CleanSharedReq.mshrMisses::total            2                       # number of CleanSharedReq MSHR misses (Count)
system.cpu.dcache.CleanSharedReq.mshrMissLatency::cpu.data        20000                       # number of CleanSharedReq MSHR miss ticks (Tick)
system.cpu.dcache.CleanSharedReq.mshrMissLatency::total        20000                       # number of CleanSharedReq MSHR miss ticks (Tick)
system.cpu.dcache.CleanSharedReq.mshrMissRate::cpu.data          inf                       # mshr miss rate for CleanSharedReq accesses (Ratio)
system.cpu.dcache.CleanSharedReq.mshrMissRate::total          inf                       # mshr miss rate for CleanSharedReq accesses (Ratio)
system.cpu.dcache.CleanSharedReq.avgMshrMissLatency::cpu.data        10000                       # average CleanSharedReq mshr miss latency ((Tick/Count))
system.cpu.dcache.CleanSharedReq.avgMshrMissLatency::total        10000                       # average CleanSharedReq mshr miss latency ((Tick/Count))
system.cpu.dcache.LoadLockedReq.hits::cpu.data          103                       # number of LoadLockedReq hits (Count)
system.cpu.dcache.LoadLockedReq.hits::total          103                       # number of LoadLockedReq hits (Count)
system.cpu.dcache.LoadLockedReq.misses::cpu.data            3                       # number of LoadLockedReq misses (Count)
system.cpu.dcache.LoadLockedReq.misses::total            3                       # number of LoadLockedReq misses (Count)
system.cpu.dcache.LoadLockedReq.missLatency::cpu.data       156000                       # number of LoadLockedReq miss ticks (Tick)
system.cpu.dcache.LoadLockedReq.missLatency::total       156000                       # number of LoadLockedReq miss ticks (Tick)
system.cpu.dcache.LoadLockedReq.accesses::cpu.data          106                       # number of LoadLockedReq accesses(hits+misses) (Count)
system.cpu.dcache.LoadLockedReq.accesses::total          106                       # number of LoadLockedReq accesses(hits+misses) (Count)
system.cpu.dcache.LoadLockedReq.missRate::cpu.data     0.028302                       # miss rate for LoadLockedReq accesses (Ratio)
system.cpu.dcache.LoadLockedReq.missRate::total     0.028302                       # miss rate for LoadLockedReq accesses (Ratio)
system.cpu.dcache.LoadLockedReq.avgMissLatency::cpu.data        52000                       # average LoadLockedReq miss latency ((Tick/Count))
system.cpu.dcache.LoadLockedReq.avgMissLatency::total        52000                       # average LoadLockedReq miss latency ((Tick/Count))
system.cpu.dcache.LoadLockedReq.mshrHits::cpu.data            3                       # number of LoadLockedReq MSHR hits (Count)
system.cpu.dcache.LoadLockedReq.mshrHits::total            3                       # number of LoadLockedReq MSHR hits (Count)
system.cpu.dcache.ReadReq.hits::cpu.data        92271                       # number of ReadReq hits (Count)
system.cpu.dcache.ReadReq.hits::total           92271                       # number of ReadReq hits (Count)
system.cpu.dcache.ReadReq.misses::cpu.data          458                       # number of ReadReq misses (Count)
system.cpu.dcache.ReadReq.misses::total           458                       # number of ReadReq misses (Count)
system.cpu.dcache.ReadReq.missLatency::cpu.data     30145000                       # number of ReadReq miss ticks (Tick)
system.cpu.dcache.ReadReq.missLatency::total     30145000                       # number of ReadReq miss ticks (Tick)
system.cpu.dcache.ReadReq.accesses::cpu.data        92729                       # number of ReadReq accesses(hits+misses) (Count)
system.cpu.dcache.ReadReq.accesses::total        92729                       # number of ReadReq accesses(hits+misses) (Count)
system.cpu.dcache.ReadReq.missRate::cpu.data     0.004939                       # miss rate for ReadReq accesses (Ratio)
system.cpu.dcache.ReadReq.missRate::total     0.004939                       # miss rate for ReadReq accesses (Ratio)
system.cpu.dcache.ReadReq.avgMissLatency::cpu.data 65818.777293                       # average ReadReq miss latency ((Tick/Count))
system.cpu.dcache.ReadReq.avgMissLatency::total 65818.777293                       # average ReadReq miss latency ((Tick/Count))
system.cpu.dcache.ReadReq.mshrMisses::cpu.data          458                       # number of ReadReq MSHR misses (Count)
system.cpu.dcache.ReadReq.mshrMisses::total          458                       # number of ReadReq MSHR misses (Count)
system.cpu.dcache.ReadReq.mshrUncacheable::cpu.data         1671                       # number of ReadReq MSHR uncacheable (Count)
system.cpu.dcache.ReadReq.mshrUncacheable::total         1671                       # number of ReadReq MSHR uncacheable (Count)
system.cpu.dcache.ReadReq.mshrMissLatency::cpu.data     29229000                       # number of ReadReq MSHR miss ticks (Tick)
system.cpu.dcache.ReadReq.mshrMissLatency::total     29229000                       # number of ReadReq MSHR miss ticks (Tick)
system.cpu.dcache.ReadReq.mshrUncacheableLatency::cpu.data    305699000                       # number of ReadReq MSHR uncacheable ticks (Tick)
system.cpu.dcache.ReadReq.mshrUncacheableLatency::total    305699000                       # number of ReadReq MSHR uncacheable ticks (Tick)
system.cpu.dcache.ReadReq.mshrMissRate::cpu.data     0.004939                       # mshr miss rate for ReadReq accesses (Ratio)
system.cpu.dcache.ReadReq.mshrMissRate::total     0.004939                       # mshr miss rate for ReadReq accesses (Ratio)
system.cpu.dcache.ReadReq.avgMshrMissLatency::cpu.data 63818.777293                       # average ReadReq mshr miss latency ((Tick/Count))
system.cpu.dcache.ReadReq.avgMshrMissLatency::total 63818.777293                       # average ReadReq mshr miss latency ((Tick/Count))
system.cpu.dcache.ReadReq.avgMshrUncacheableLatency::cpu.data 182943.746260                       # average ReadReq mshr uncacheable latency ((Tick/Count))
system.cpu.dcache.ReadReq.avgMshrUncacheableLatency::total 182943.746260                       # average ReadReq mshr uncacheable latency ((Tick/Count))
system.cpu.dcache.SoftPFReq.hits::cpu.data          237                       # number of SoftPFReq hits (Count)
system.cpu.dcache.SoftPFReq.hits::total           237                       # number of SoftPFReq hits (Count)
system.cpu.dcache.SoftPFReq.misses::cpu.data            3                       # number of SoftPFReq misses (Count)
system.cpu.dcache.SoftPFReq.misses::total            3                       # number of SoftPFReq misses (Count)
system.cpu.dcache.SoftPFReq.accesses::cpu.data          240                       # number of SoftPFReq accesses(hits+misses) (Count)
system.cpu.dcache.SoftPFReq.accesses::total          240                       # number of SoftPFReq accesses(hits+misses) (Count)
system.cpu.dcache.SoftPFReq.missRate::cpu.data     0.012500                       # miss rate for SoftPFReq accesses (Ratio)
system.cpu.dcache.SoftPFReq.missRate::total     0.012500                       # miss rate for SoftPFReq accesses (Ratio)
system.cpu.dcache.SoftPFReq.mshrMisses::cpu.data            3                       # number of SoftPFReq MSHR misses (Count)
system.cpu.dcache.SoftPFReq.mshrMisses::total            3                       # number of SoftPFReq MSHR misses (Count)
system.cpu.dcache.SoftPFReq.mshrMissLatency::cpu.data       164000                       # number of SoftPFReq MSHR miss ticks (Tick)
system.cpu.dcache.SoftPFReq.mshrMissLatency::total       164000                       # number of SoftPFReq MSHR miss ticks (Tick)
system.cpu.dcache.SoftPFReq.mshrMissRate::cpu.data     0.012500                       # mshr miss rate for SoftPFReq accesses (Ratio)
system.cpu.dcache.SoftPFReq.mshrMissRate::total     0.012500                       # mshr miss rate for SoftPFReq accesses (Ratio)
system.cpu.dcache.SoftPFReq.avgMshrMissLatency::cpu.data 54666.666667                       # average SoftPFReq mshr miss latency ((Tick/Count))
system.cpu.dcache.SoftPFReq.avgMshrMissLatency::total 54666.666667                       # average SoftPFReq mshr miss latency ((Tick/Count))
system.cpu.dcache.StoreCondReq.hits::cpu.data          106                       # number of StoreCondReq hits (Count)
system.cpu.dcache.StoreCondReq.hits::total          106                       # number of StoreCondReq hits (Count)
system.cpu.dcache.StoreCondReq.accesses::cpu.data          106                       # number of StoreCondReq accesses(hits+misses) (Count)
system.cpu.dcache.StoreCondReq.accesses::total          106                       # number of StoreCondReq accesses(hits+misses) (Count)
system.cpu.dcache.WriteReq.hits::cpu.data        79995                       # number of WriteReq hits (Count)
system.cpu.dcache.WriteReq.hits::total          79995                       # number of WriteReq hits (Count)
system.cpu.dcache.WriteReq.misses::cpu.data         3047                       # number of WriteReq misses (Count)
system.cpu.dcache.WriteReq.misses::total         3047                       # number of WriteReq misses (Count)
system.cpu.dcache.WriteReq.missLatency::cpu.data    184179000                       # number of WriteReq miss ticks (Tick)
system.cpu.dcache.WriteReq.missLatency::total    184179000                       # number of WriteReq miss ticks (Tick)
system.cpu.dcache.WriteReq.accesses::cpu.data        83042                       # number of WriteReq accesses(hits+misses) (Count)
system.cpu.dcache.WriteReq.accesses::total        83042                       # number of WriteReq accesses(hits+misses) (Count)
system.cpu.dcache.WriteReq.missRate::cpu.data     0.036692                       # miss rate for WriteReq accesses (Ratio)
system.cpu.dcache.WriteReq.missRate::total     0.036692                       # miss rate for WriteReq accesses (Ratio)
system.cpu.dcache.WriteReq.avgMissLatency::cpu.data 60446.012471                       # average WriteReq miss latency ((Tick/Count))
system.cpu.dcache.WriteReq.avgMissLatency::total 60446.012471                       # average WriteReq miss latency ((Tick/Count))
system.cpu.dcache.WriteReq.mshrMisses::cpu.data         3047                       # number of WriteReq MSHR misses (Count)
system.cpu.dcache.WriteReq.mshrMisses::total         3047                       # number of WriteReq MSHR misses (Count)
system.cpu.dcache.WriteReq.mshrUncacheable::cpu.data         4936                       # number of WriteReq MSHR uncacheable (Count)
system.cpu.dcache.WriteReq.mshrUncacheable::total         4936                       # number of WriteReq MSHR uncacheable (Count)
system.cpu.dcache.WriteReq.mshrMissLatency::cpu.data    178085000                       # number of WriteReq MSHR miss ticks (Tick)
system.cpu.dcache.WriteReq.mshrMissLatency::total    178085000                       # number of WriteReq MSHR miss ticks (Tick)
system.cpu.dcache.WriteReq.mshrMissRate::cpu.data     0.036692                       # mshr miss rate for WriteReq accesses (Ratio)
system.cpu.dcache.WriteReq.mshrMissRate::total     0.036692                       # mshr miss rate for WriteReq accesses (Ratio)
system.cpu.dcache.WriteReq.avgMshrMissLatency::cpu.data 58446.012471                       # average WriteReq mshr miss latency ((Tick/Count))
system.cpu.dcache.WriteReq.avgMshrMissLatency::total 58446.012471                       # average WriteReq mshr miss latency ((Tick/Count))
system.cpu.dcache.power_state.pwrStateResidencyTicks::UNDEFINED 16354700548000                       # Cumulative time (in ticks) in various power states (Tick)
system.cpu.dcache.tags.tagsInUse          1023.959679                       # Average ticks per tags in use ((Tick/Count))
system.cpu.dcache.tags.totalRefs               176222                       # Total number of references to valid blocks. (Count)
system.cpu.dcache.tags.sampledRefs               3508                       # Sample count of references to valid blocks. (Count)
system.cpu.dcache.tags.avgRefs              50.234322                       # Average number of references to valid blocks. ((Count/Count))
system.cpu.dcache.tags.warmupTick           593335000                       # The tick when the warmup percentage was hit. (Tick)
system.cpu.dcache.tags.occupancies::cpu.data  1023.959679                       # Average occupied blocks per tick, per requestor ((Count/Tick))
system.cpu.dcache.tags.avgOccs::cpu.data     0.999961                       # Average percentage of cache occupancy ((Ratio/Tick))
system.cpu.dcache.tags.avgOccs::total        0.999961                       # Average percentage of cache occupancy ((Ratio/Tick))
system.cpu.dcache.tags.occupanciesTaskId::1024         1024                       # Occupied blocks per task id (Count)
system.cpu.dcache.tags.ageTaskId_1024::4         1024                       # Occupied blocks per task id, per block age (Count)
system.cpu.dcache.tags.ratioOccsTaskId::1024            1                       # Ratio of occupied blocks and all blocks, per task id (Ratio)
system.cpu.dcache.tags.tagAccesses             355958                       # Number of tag accesses (Count)
system.cpu.dcache.tags.dataAccesses            355958                       # Number of data accesses (Count)
system.cpu.dcache.tags.power_state.pwrStateResidencyTicks::UNDEFINED 16354700548000                       # Cumulative time (in ticks) in various power states (Tick)
system.cpu.exec_context.thread_0.numMatAluAccesses            0                       # Number of matrix alu accesses (Count)
system.cpu.exec_context.thread_0.numCallsReturns        26683                       # Number of times a function call or return occured (Count)
system.cpu.exec_context.thread_0.numMatInsts            0                       # Number of matrix instructions (Count)
system.cpu.exec_context.thread_0.numIdleCycles            0                       # Number of idle cycles (Cycle)
system.cpu.exec_context.thread_0.numBusyCycles  16354700548                       # Number of busy cycles (Cycle)
system.cpu.exec_context.thread_0.notIdleFraction            1                       # Percentage of non-idle cycles (Ratio)
system.cpu.exec_context.thread_0.idleFraction            0                       # Percentage of idle cycles (Ratio)
system.cpu.executeStats0.numInsts                   0                       # Number of executed instructions (Count)
system.cpu.executeStats0.numNop                     0                       # Number of nop insts executed (Count)
system.cpu.executeStats0.numBranches                0                       # Number of branches executed (Count)
system.cpu.executeStats0.numLoadInsts               0                       # Number of load instructions executed (Count)
system.cpu.executeStats0.numStoreInsts         185434                       # Number of stores executed (Count)
system.cpu.executeStats0.instRate                   0                       # Inst execution rate ((Count/Cycle))
system.cpu.executeStats0.numFpRegWrites             0                       # Number of times the floating registers were written (Count)
system.cpu.executeStats0.numIntAluAccesses       518530                       # Number of integer alu accesses (Count)
system.cpu.executeStats0.numIntRegReads        661071                       # Number of times the integer registers were read (Count)
system.cpu.executeStats0.numIntRegWrites       337694                       # Number of times the integer registers were written (Count)
system.cpu.executeStats0.numMemRefs            185434                       # Number of memory refs (Count)
system.cpu.executeStats0.numMiscRegReads       195624                       # Number of times the Misc registers were read (Count)
system.cpu.executeStats0.numMiscRegWrites          687                       # Number of times the Misc registers were written (Count)
system.cpu.executeStats0.numVecAluAccesses            0                       # Number of vector alu accesses (Count)
system.cpu.executeStats0.numDiscardedOps            0                       # Number of ops (including micro ops) which were discarded before commit (Count)
system.cpu.fetchStats0.numInsts                500717                       # Number of instructions fetched (thread level) (Count)
system.cpu.fetchStats0.numOps                  617184                       # Number of ops (including micro ops) fetched (thread level) (Count)
system.cpu.fetchStats0.fetchRate             0.000031                       # Number of inst fetches per cycle ((Count/Cycle))
system.cpu.fetchStats0.numBranches             126236                       # Number of branches fetched (Count)
system.cpu.fetchStats0.branchRate            0.000008                       # Number of branch fetches per cycle (Ratio)
system.cpu.fetchStats0.numFetchSuspends             0                       # Number of times Execute suspended instruction fetching (Count)
system.cpu.icache.demandHits::cpu.inst         491833                       # number of demand (read+write) hits (Count)
system.cpu.icache.demandHits::total            491833                       # number of demand (read+write) hits (Count)
system.cpu.icache.overallHits::cpu.inst        491833                       # number of overall hits (Count)
system.cpu.icache.overallHits::total           491833                       # number of overall hits (Count)
system.cpu.icache.demandMisses::cpu.inst          773                       # number of demand (read+write) misses (Count)
system.cpu.icache.demandMisses::total             773                       # number of demand (read+write) misses (Count)
system.cpu.icache.overallMisses::cpu.inst          773                       # number of overall misses (Count)
system.cpu.icache.overallMisses::total            773                       # number of overall misses (Count)
system.cpu.icache.demandMissLatency::cpu.inst     46996000                       # number of demand (read+write) miss ticks (Tick)
system.cpu.icache.demandMissLatency::total     46996000                       # number of demand (read+write) miss ticks (Tick)
system.cpu.icache.overallMissLatency::cpu.inst     46996000                       # number of overall miss ticks (Tick)
system.cpu.icache.overallMissLatency::total     46996000                       # number of overall miss ticks (Tick)
system.cpu.icache.demandAccesses::cpu.inst       492606                       # number of demand (read+write) accesses (Count)
system.cpu.icache.demandAccesses::total        492606                       # number of demand (read+write) accesses (Count)
system.cpu.icache.overallAccesses::cpu.inst       492606                       # number of overall (read+write) accesses (Count)
system.cpu.icache.overallAccesses::total       492606                       # number of overall (read+write) accesses (Count)
system.cpu.icache.demandMissRate::cpu.inst     0.001569                       # miss rate for demand accesses (Ratio)
system.cpu.icache.demandMissRate::total      0.001569                       # miss rate for demand accesses (Ratio)
system.cpu.icache.overallMissRate::cpu.inst     0.001569                       # miss rate for overall accesses (Ratio)
system.cpu.icache.overallMissRate::total     0.001569                       # miss rate for overall accesses (Ratio)
system.cpu.icache.demandAvgMissLatency::cpu.inst 60796.895213                       # average overall miss latency in ticks ((Tick/Count))
system.cpu.icache.demandAvgMissLatency::total 60796.895213                       # average overall miss latency in ticks ((Tick/Count))
system.cpu.icache.overallAvgMissLatency::cpu.inst 60796.895213                       # average overall miss latency ((Tick/Count))
system.cpu.icache.overallAvgMissLatency::total 60796.895213                       # average overall miss latency ((Tick/Count))
system.cpu.icache.blockedCycles::no_mshrs            0                       # number of cycles access was blocked (Cycle)
system.cpu.icache.blockedCycles::no_targets            0                       # number of cycles access was blocked (Cycle)
system.cpu.icache.blockedCauses::no_mshrs            0                       # number of times access was blocked (Count)
system.cpu.icache.blockedCauses::no_targets            0                       # number of times access was blocked (Count)
system.cpu.icache.avgBlocked::no_mshrs            nan                       # average number of cycles each access was blocked ((Cycle/Count))
system.cpu.icache.avgBlocked::no_targets          nan                       # average number of cycles each access was blocked ((Cycle/Count))
system.cpu.icache.writebacks::writebacks          351                       # number of writebacks (Count)
system.cpu.icache.writebacks::total               351                       # number of writebacks (Count)
system.cpu.icache.demandMshrMisses::cpu.inst          773                       # number of demand (read+write) MSHR misses (Count)
system.cpu.icache.demandMshrMisses::total          773                       # number of demand (read+write) MSHR misses (Count)
system.cpu.icache.overallMshrMisses::cpu.inst          773                       # number of overall MSHR misses (Count)
system.cpu.icache.overallMshrMisses::total          773                       # number of overall MSHR misses (Count)
system.cpu.icache.overallMshrUncacheable::cpu.inst         8112                       # number of overall MSHR uncacheable misses (Count)
system.cpu.icache.overallMshrUncacheable::total         8112                       # number of overall MSHR uncacheable misses (Count)
system.cpu.icache.demandMshrMissLatency::cpu.inst     45450000                       # number of demand (read+write) MSHR miss ticks (Tick)
system.cpu.icache.demandMshrMissLatency::total     45450000                       # number of demand (read+write) MSHR miss ticks (Tick)
system.cpu.icache.overallMshrMissLatency::cpu.inst     45450000                       # number of overall MSHR miss ticks (Tick)
system.cpu.icache.overallMshrMissLatency::total     45450000                       # number of overall MSHR miss ticks (Tick)
system.cpu.icache.overallMshrUncacheableLatency::cpu.inst    438665000                       # number of overall MSHR uncacheable ticks (Tick)
system.cpu.icache.overallMshrUncacheableLatency::total    438665000                       # number of overall MSHR uncacheable ticks (Tick)
system.cpu.icache.demandMshrMissRate::cpu.inst     0.001569                       # mshr miss ratio for demand accesses (Ratio)
system.cpu.icache.demandMshrMissRate::total     0.001569                       # mshr miss ratio for demand accesses (Ratio)
system.cpu.icache.overallMshrMissRate::cpu.inst     0.001569                       # mshr miss ratio for overall accesses (Ratio)
system.cpu.icache.overallMshrMissRate::total     0.001569                       # mshr miss ratio for overall accesses (Ratio)
system.cpu.icache.demandAvgMshrMissLatency::cpu.inst 58796.895213                       # average overall mshr miss latency ((Tick/Count))
system.cpu.icache.demandAvgMshrMissLatency::total 58796.895213                       # average overall mshr miss latency ((Tick/Count))
system.cpu.icache.overallAvgMshrMissLatency::cpu.inst 58796.895213                       # average overall mshr miss latency ((Tick/Count))
system.cpu.icache.overallAvgMshrMissLatency::total 58796.895213                       # average overall mshr miss latency ((Tick/Count))
system.cpu.icache.overallAvgMshrUncacheableLatency::cpu.inst 54076.060158                       # average overall mshr uncacheable latency ((Tick/Count))
system.cpu.icache.overallAvgMshrUncacheableLatency::total 54076.060158                       # average overall mshr uncacheable latency ((Tick/Count))
system.cpu.icache.replacements                    351                       # number of replacements (Count)
system.cpu.icache.ReadReq.hits::cpu.inst       491833                       # number of ReadReq hits (Count)
system.cpu.icache.ReadReq.hits::total          491833                       # number of ReadReq hits (Count)
system.cpu.icache.ReadReq.misses::cpu.inst          773                       # number of ReadReq misses (Count)
system.cpu.icache.ReadReq.misses::total           773                       # number of ReadReq misses (Count)
system.cpu.icache.ReadReq.missLatency::cpu.inst     46996000                       # number of ReadReq miss ticks (Tick)
system.cpu.icache.ReadReq.missLatency::total     46996000                       # number of ReadReq miss ticks (Tick)
system.cpu.icache.ReadReq.accesses::cpu.inst       492606                       # number of ReadReq accesses(hits+misses) (Count)
system.cpu.icache.ReadReq.accesses::total       492606                       # number of ReadReq accesses(hits+misses) (Count)
system.cpu.icache.ReadReq.missRate::cpu.inst     0.001569                       # miss rate for ReadReq accesses (Ratio)
system.cpu.icache.ReadReq.missRate::total     0.001569                       # miss rate for ReadReq accesses (Ratio)
system.cpu.icache.ReadReq.avgMissLatency::cpu.inst 60796.895213                       # average ReadReq miss latency ((Tick/Count))
system.cpu.icache.ReadReq.avgMissLatency::total 60796.895213                       # average ReadReq miss latency ((Tick/Count))
system.cpu.icache.ReadReq.mshrMisses::cpu.inst          773                       # number of ReadReq MSHR misses (Count)
system.cpu.icache.ReadReq.mshrMisses::total          773                       # number of ReadReq MSHR misses (Count)
system.cpu.icache.ReadReq.mshrUncacheable::cpu.inst         8112                       # number of ReadReq MSHR uncacheable (Count)
system.cpu.icache.ReadReq.mshrUncacheable::total         8112                       # number of ReadReq MSHR uncacheable (Count)
system.cpu.icache.ReadReq.mshrMissLatency::cpu.inst     45450000                       # number of ReadReq MSHR miss ticks (Tick)
system.cpu.icache.ReadReq.mshrMissLatency::total     45450000                       # number of ReadReq MSHR miss ticks (Tick)
system.cpu.icache.ReadReq.mshrUncacheableLatency::cpu.inst    438665000                       # number of ReadReq MSHR uncacheable ticks (Tick)
system.cpu.icache.ReadReq.mshrUncacheableLatency::total    438665000                       # number of ReadReq MSHR uncacheable ticks (Tick)
system.cpu.icache.ReadReq.mshrMissRate::cpu.inst     0.001569                       # mshr miss rate for ReadReq accesses (Ratio)
system.cpu.icache.ReadReq.mshrMissRate::total     0.001569                       # mshr miss rate for ReadReq accesses (Ratio)
system.cpu.icache.ReadReq.avgMshrMissLatency::cpu.inst 58796.895213                       # average ReadReq mshr miss latency ((Tick/Count))
system.cpu.icache.ReadReq.avgMshrMissLatency::total 58796.895213                       # average ReadReq mshr miss latency ((Tick/Count))
system.cpu.icache.ReadReq.avgMshrUncacheableLatency::cpu.inst 54076.060158                       # average ReadReq mshr uncacheable latency ((Tick/Count))
system.cpu.icache.ReadReq.avgMshrUncacheableLatency::total 54076.060158                       # average ReadReq mshr uncacheable latency ((Tick/Count))
system.cpu.icache.power_state.pwrStateResidencyTicks::UNDEFINED 16354700548000                       # Cumulative time (in ticks) in various power states (Tick)
system.cpu.icache.tags.tagsInUse           421.968348                       # Average ticks per tags in use ((Tick/Count))
system.cpu.icache.tags.totalRefs               492606                       # Total number of references to valid blocks. (Count)
system.cpu.icache.tags.sampledRefs                773                       # Sample count of references to valid blocks. (Count)
system.cpu.icache.tags.avgRefs             637.265201                       # Average number of references to valid blocks. ((Count/Count))
system.cpu.icache.tags.warmupTick           593114000                       # The tick when the warmup percentage was hit. (Tick)
system.cpu.icache.tags.occupancies::cpu.inst   421.968348                       # Average occupied blocks per tick, per requestor ((Count/Tick))
system.cpu.icache.tags.avgOccs::cpu.inst     0.824157                       # Average percentage of cache occupancy ((Ratio/Tick))
system.cpu.icache.tags.avgOccs::total        0.824157                       # Average percentage of cache occupancy ((Ratio/Tick))
system.cpu.icache.tags.occupanciesTaskId::1024          422                       # Occupied blocks per task id (Count)
system.cpu.icache.tags.ageTaskId_1024::4          422                       # Occupied blocks per task id, per block age (Count)
system.cpu.icache.tags.ratioOccsTaskId::1024     0.824219                       # Ratio of occupied blocks and all blocks, per task id (Ratio)
system.cpu.icache.tags.tagAccesses             985985                       # Number of tag accesses (Count)
system.cpu.icache.tags.dataAccesses            985985                       # Number of data accesses (Count)
system.cpu.icache.tags.power_state.pwrStateResidencyTicks::UNDEFINED 16354700548000                       # Cumulative time (in ticks) in various power states (Tick)
system.cpu.mmu.alignFaults                          0                       # Number of MMU faults due to alignment restrictions (Count)
system.cpu.mmu.prefetchFaults                       0                       # Number of MMU faults due to prefetch (Count)
system.cpu.mmu.domainFaults                         0                       # Number of MMU faults due to domain restrictions (Count)
system.cpu.mmu.permsFaults                          0                       # Number of MMU faults due to permissions restrictions (Count)
system.cpu.mmu.dtb.readHits                     94372                       # Read hits (Count)
system.cpu.mmu.dtb.readMisses                       9                       # Read misses (Count)
system.cpu.mmu.dtb.writeHits                    83801                       # Write hits (Count)
system.cpu.mmu.dtb.writeMisses                      3                       # Write misses (Count)
system.cpu.mmu.dtb.inserts                         11                       # Number of times an entry is inserted into the TLB (Count)
system.cpu.mmu.dtb.flushTlb                      4097                       # Number of times a TLB invalidation was requested (Count)
system.cpu.mmu.dtb.flushedEntries                   0                       # Number of entries that have been flushed from TLB (Count)
system.cpu.mmu.dtb.readAccesses                 94381                       # Read accesses (Count)
system.cpu.mmu.dtb.writeAccesses                83804                       # Write accesses (Count)
system.cpu.mmu.dtb.hits                        178173                       # Total TLB (inst and data) hits (Count)
system.cpu.mmu.dtb.misses                          12                       # Total TLB (inst and data) misses (Count)
system.cpu.mmu.dtb.accesses                    178185                       # Total TLB (inst and data) accesses (Count)
system.cpu.mmu.dtb_walker.walks                     7                       # Table walker walks requested (Count)
system.cpu.mmu.dtb_walker.walksShortDescriptor            7                       # Table walker walks initiated with short descriptors (Count)
system.cpu.mmu.dtb_walker.walksShortTerminatedAtLevel::Level1            7                       # Level at which table walker walks with short descriptors terminate (Count)
system.cpu.mmu.dtb_walker.walkWaitTime::samples            7                       # Table walker wait (enqueue to first request) latency (Tick)
system.cpu.mmu.dtb_walker.walkWaitTime::0            7    100.00%    100.00% # Table walker wait (enqueue to first request) latency (Tick)
system.cpu.mmu.dtb_walker.walkWaitTime::total            7                       # Table walker wait (enqueue to first request) latency (Tick)
system.cpu.mmu.dtb_walker.walkServiceTime::samples            6                       # Table walker service (enqueue to completion) latency (Tick)
system.cpu.mmu.dtb_walker.walkServiceTime::mean 70666.666667                       # Table walker service (enqueue to completion) latency (Tick)
system.cpu.mmu.dtb_walker.walkServiceTime::gmean 69775.929507                       # Table walker service (enqueue to completion) latency (Tick)
system.cpu.mmu.dtb_walker.walkServiceTime::stdev 11343.133018                       # Table walker service (enqueue to completion) latency (Tick)
system.cpu.mmu.dtb_walker.walkServiceTime::40960-49151            1     16.67%     16.67% # Table walker service (enqueue to completion) latency (Tick)
system.cpu.mmu.dtb_walker.walkServiceTime::65536-73727            1     16.67%     33.33% # Table walker service (enqueue to completion) latency (Tick)
system.cpu.mmu.dtb_walker.walkServiceTime::73728-81919            4     66.67%    100.00% # Table walker service (enqueue to completion) latency (Tick)
system.cpu.mmu.dtb_walker.walkServiceTime::total            6                       # Table walker service (enqueue to completion) latency (Tick)
system.cpu.mmu.dtb_walker.pendingWalks::samples    593536000                       # Table walker pending requests distribution (Tick)
system.cpu.mmu.dtb_walker.pendingWalks::0    593536000    100.00%    100.00% # Table walker pending requests distribution (Tick)
system.cpu.mmu.dtb_walker.pendingWalks::total    593536000                       # Table walker pending requests distribution (Tick)
system.cpu.mmu.dtb_walker.pageSizes::1MiB            6    100.00%    100.00% # Table walker page sizes translated (Count)
system.cpu.mmu.dtb_walker.pageSizes::total            6                       # Table walker page sizes translated (Count)
system.cpu.mmu.dtb_walker.requestOrigin_Requested::Data            7                       # Table walker requests started/completed, data/inst (Count)
system.cpu.mmu.dtb_walker.requestOrigin_Requested::Inst            0                       # Table walker requests started/completed, data/inst (Count)
system.cpu.mmu.dtb_walker.requestOrigin_Requested::total            7                       # Table walker requests started/completed, data/inst (Count)
system.cpu.mmu.dtb_walker.requestOrigin_Completed::Data            6                       # Table walker requests started/completed, data/inst (Count)
system.cpu.mmu.dtb_walker.requestOrigin_Completed::Inst            0                       # Table walker requests started/completed, data/inst (Count)
system.cpu.mmu.dtb_walker.requestOrigin_Completed::total            6                       # Table walker requests started/completed, data/inst (Count)
system.cpu.mmu.dtb_walker.requestOrigin::total           13                       # Table walker requests started/completed, data/inst (Count)
system.cpu.mmu.dtb_walker.power_state.pwrStateResidencyTicks::UNDEFINED 16354700548000                       # Cumulative time (in ticks) in various power states (Tick)
system.cpu.mmu.itb.instHits                    492606                       # Inst hits (Count)
system.cpu.mmu.itb.instMisses               312934824                       # Inst misses (Count)
system.cpu.mmu.itb.inserts                          6                       # Number of times an entry is inserted into the TLB (Count)
system.cpu.mmu.itb.flushTlb                      4097                       # Number of times a TLB invalidation was requested (Count)
system.cpu.mmu.itb.flushedEntries                   0                       # Number of entries that have been flushed from TLB (Count)
system.cpu.mmu.itb.instAccesses             313427430                       # Inst accesses (Count)
system.cpu.mmu.itb.hits                        492606                       # Total TLB (inst and data) hits (Count)
system.cpu.mmu.itb.misses                   312934824                       # Total TLB (inst and data) misses (Count)
system.cpu.mmu.itb.accesses                 313427430                       # Total TLB (inst and data) accesses (Count)
system.cpu.mmu.itb_walker.walks             312934824                       # Table walker walks requested (Count)
system.cpu.mmu.itb_walker.walksShortDescriptor    312934824                       # Table walker walks initiated with short descriptors (Count)
system.cpu.mmu.itb_walker.walksShortTerminatedAtLevel::Level1    312934823                       # Level at which table walker walks with short descriptors terminate (Count)
system.cpu.mmu.itb_walker.walkWaitTime::samples    312934824                       # Table walker wait (enqueue to first request) latency (Tick)
system.cpu.mmu.itb_walker.walkWaitTime::0    312934824    100.00%    100.00% # Table walker wait (enqueue to first request) latency (Tick)
system.cpu.mmu.itb_walker.walkWaitTime::total    312934824                       # Table walker wait (enqueue to first request) latency (Tick)
system.cpu.mmu.itb_walker.walkServiceTime::samples            6                       # Table walker service (enqueue to completion) latency (Tick)
system.cpu.mmu.itb_walker.walkServiceTime::mean        56000                       # Table walker service (enqueue to completion) latency (Tick)
system.cpu.mmu.itb_walker.walkServiceTime::gmean 52018.116708                       # Table walker service (enqueue to completion) latency (Tick)
system.cpu.mmu.itb_walker.walkServiceTime::stdev 19297.668253                       # Table walker service (enqueue to completion) latency (Tick)
system.cpu.mmu.itb_walker.walkServiceTime::16384-24575            1     16.67%     16.67% # Table walker service (enqueue to completion) latency (Tick)
system.cpu.mmu.itb_walker.walkServiceTime::40960-49151            1     16.67%     33.33% # Table walker service (enqueue to completion) latency (Tick)
system.cpu.mmu.itb_walker.walkServiceTime::57344-65535            3     50.00%     83.33% # Table walker service (enqueue to completion) latency (Tick)
system.cpu.mmu.itb_walker.walkServiceTime::73728-81919            1     16.67%    100.00% # Table walker service (enqueue to completion) latency (Tick)
system.cpu.mmu.itb_walker.walkServiceTime::total            6                       # Table walker service (enqueue to completion) latency (Tick)
system.cpu.mmu.itb_walker.pendingWalks::samples    593043000                       # Table walker pending requests distribution (Tick)
system.cpu.mmu.itb_walker.pendingWalks::0    593043000    100.00%    100.00% # Table walker pending requests distribution (Tick)
system.cpu.mmu.itb_walker.pendingWalks::total    593043000                       # Table walker pending requests distribution (Tick)
system.cpu.mmu.itb_walker.pageSizes::1MiB            6    100.00%    100.00% # Table walker page sizes translated (Count)
system.cpu.mmu.itb_walker.pageSizes::total            6                       # Table walker page sizes translated (Count)
system.cpu.mmu.itb_walker.requestOrigin_Requested::Data            0                       # Table walker requests started/completed, data/inst (Count)
system.cpu.mmu.itb_walker.requestOrigin_Requested::Inst    312934824                       # Table walker requests started/completed, data/inst (Count)
system.cpu.mmu.itb_walker.requestOrigin_Requested::total    312934824                       # Table walker requests started/completed, data/inst (Count)
system.cpu.mmu.itb_walker.requestOrigin_Completed::Data            0                       # Table walker requests started/completed, data/inst (Count)
system.cpu.mmu.itb_walker.requestOrigin_Completed::Inst            6                       # Table walker requests started/completed, data/inst (Count)
system.cpu.mmu.itb_walker.requestOrigin_Completed::total            6                       # Table walker requests started/completed, data/inst (Count)
system.cpu.mmu.itb_walker.requestOrigin::total    312934830                       # Table walker requests started/completed, data/inst (Count)
system.cpu.mmu.itb_walker.power_state.pwrStateResidencyTicks::UNDEFINED 16354700548000                       # Cumulative time (in ticks) in various power states (Tick)
system.cpu.mmu.l2_shared.instHits                   0                       # Inst hits (Count)
system.cpu.mmu.l2_shared.instMisses         312934824                       # Inst misses (Count)
system.cpu.mmu.l2_shared.readHits                   5                       # Read hits (Count)
system.cpu.mmu.l2_shared.readMisses                 4                       # Read misses (Count)
system.cpu.mmu.l2_shared.writeMisses                3                       # Write misses (Count)
system.cpu.mmu.l2_shared.inserts                   12                       # Number of times an entry is inserted into the TLB (Count)
system.cpu.mmu.l2_shared.flushTlb                4097                       # Number of times a TLB invalidation was requested (Count)
system.cpu.mmu.l2_shared.flushedEntries             0                       # Number of entries that have been flushed from TLB (Count)
system.cpu.mmu.l2_shared.readAccesses               9                       # Read accesses (Count)
system.cpu.mmu.l2_shared.writeAccesses              3                       # Write accesses (Count)
system.cpu.mmu.l2_shared.instAccesses       312934824                       # Inst accesses (Count)
system.cpu.mmu.l2_shared.hits                       5                       # Total TLB (inst and data) hits (Count)
system.cpu.mmu.l2_shared.misses             312934831                       # Total TLB (inst and data) misses (Count)
system.cpu.mmu.l2_shared.accesses           312934836                       # Total TLB (inst and data) accesses (Count)
system.cpu.mmu.stage2_dtb.readHits                  0                       # Read hits (Count)
system.cpu.mmu.stage2_dtb.readMisses                0                       # Read misses (Count)
system.cpu.mmu.stage2_dtb.writeHits                 0                       # Write hits (Count)
system.cpu.mmu.stage2_dtb.writeMisses               0                       # Write misses (Count)
system.cpu.mmu.stage2_dtb.inserts                   0                       # Number of times an entry is inserted into the TLB (Count)
system.cpu.mmu.stage2_dtb.flushTlb                  0                       # Number of times a TLB invalidation was requested (Count)
system.cpu.mmu.stage2_dtb.flushedEntries            0                       # Number of entries that have been flushed from TLB (Count)
system.cpu.mmu.stage2_dtb.readAccesses              0                       # Read accesses (Count)
system.cpu.mmu.stage2_dtb.writeAccesses             0                       # Write accesses (Count)
system.cpu.mmu.stage2_dtb.hits                      0                       # Total TLB (inst and data) hits (Count)
system.cpu.mmu.stage2_dtb.misses                    0                       # Total TLB (inst and data) misses (Count)
system.cpu.mmu.stage2_dtb.accesses                  0                       # Total TLB (inst and data) accesses (Count)
system.cpu.mmu.stage2_dtb_walker.walks              0                       # Table walker walks requested (Count)
system.cpu.mmu.stage2_dtb_walker.requestOrigin_Requested::Data            0                       # Table walker requests started/completed, data/inst (Count)
system.cpu.mmu.stage2_dtb_walker.requestOrigin_Requested::Inst            0                       # Table walker requests started/completed, data/inst (Count)
system.cpu.mmu.stage2_dtb_walker.requestOrigin_Requested::total            0                       # Table walker requests started/completed, data/inst (Count)
system.cpu.mmu.stage2_dtb_walker.requestOrigin_Completed::Data            0                       # Table walker requests started/completed, data/inst (Count)
system.cpu.mmu.stage2_dtb_walker.requestOrigin_Completed::Inst            0                       # Table walker requests started/completed, data/inst (Count)
system.cpu.mmu.stage2_dtb_walker.requestOrigin_Completed::total            0                       # Table walker requests started/completed, data/inst (Count)
system.cpu.mmu.stage2_dtb_walker.requestOrigin::total            0                       # Table walker requests started/completed, data/inst (Count)
system.cpu.mmu.stage2_dtb_walker.power_state.pwrStateResidencyTicks::UNDEFINED 16354700548000                       # Cumulative time (in ticks) in various power states (Tick)
system.cpu.mmu.stage2_itb.instHits                  0                       # Inst hits (Count)
system.cpu.mmu.stage2_itb.instMisses                0                       # Inst misses (Count)
system.cpu.mmu.stage2_itb.inserts                   0                       # Number of times an entry is inserted into the TLB (Count)
system.cpu.mmu.stage2_itb.flushTlb                  0                       # Number of times a TLB invalidation was requested (Count)
system.cpu.mmu.stage2_itb.flushedEntries            0                       # Number of entries that have been flushed from TLB (Count)
system.cpu.mmu.stage2_itb.instAccesses              0                       # Inst accesses (Count)
system.cpu.mmu.stage2_itb.hits                      0                       # Total TLB (inst and data) hits (Count)
system.cpu.mmu.stage2_itb.misses                    0                       # Total TLB (inst and data) misses (Count)
system.cpu.mmu.stage2_itb.accesses                  0                       # Total TLB (inst and data) accesses (Count)
system.cpu.mmu.stage2_itb_walker.walks              0                       # Table walker walks requested (Count)
system.cpu.mmu.stage2_itb_walker.requestOrigin_Requested::Data            0                       # Table walker requests started/completed, data/inst (Count)
system.cpu.mmu.stage2_itb_walker.requestOrigin_Requested::Inst            0                       # Table walker requests started/completed, data/inst (Count)
system.cpu.mmu.stage2_itb_walker.requestOrigin_Requested::total            0                       # Table walker requests started/completed, data/inst (Count)
system.cpu.mmu.stage2_itb_walker.requestOrigin_Completed::Data            0                       # Table walker requests started/completed, data/inst (Count)
system.cpu.mmu.stage2_itb_walker.requestOrigin_Completed::Inst            0                       # Table walker requests started/completed, data/inst (Count)
system.cpu.mmu.stage2_itb_walker.requestOrigin_Completed::total            0                       # Table walker requests started/completed, data/inst (Count)
system.cpu.mmu.stage2_itb_walker.requestOrigin::total            0                       # Table walker requests started/completed, data/inst (Count)
system.cpu.mmu.stage2_itb_walker.power_state.pwrStateResidencyTicks::UNDEFINED 16354700548000                       # Cumulative time (in ticks) in various power states (Tick)
system.cpu.power_state.pwrStateResidencyTicks::ON 16354700548000                       # Cumulative time (in ticks) in various power states (Tick)
system.cpu.thread_0.numInsts                        0                       # Number of Instructions committed (Count)
system.cpu.thread_0.numOps                          0                       # Number of Ops committed (Count)
system.cpu.thread_0.numMemRefs                      0                       # Number of Memory References (Count)
system.cpu_clk_domain.clock                      1000                       # Clock period in ticks (Tick)
system.cpu_voltage_domain.voltage                   1                       # Voltage in Volts (Volt)
system.iobus.transDist::ReadReq                  1302                       # Transaction distribution (Count)
system.iobus.transDist::ReadResp                 1302                       # Transaction distribution (Count)
system.iobus.transDist::WriteReq                  651                       # Transaction distribution (Count)
system.iobus.transDist::WriteResp                 651                       # Transaction distribution (Count)
system.iobus.pktCount_system.bridge.mem_side_port::system.realview.uart0.pio         3906                       # Packet count per connected requestor and responder (Count)
system.iobus.pktCount_system.bridge.mem_side_port::total         3906                       # Packet count per connected requestor and responder (Count)
system.iobus.pktCount::total                     3906                       # Packet count per connected requestor and responder (Count)
system.iobus.pktSize_system.bridge.mem_side_port::system.realview.uart0.pio         5859                       # Cumulative packet size per connected requestor and responder (Byte)
system.iobus.pktSize_system.bridge.mem_side_port::total         5859                       # Cumulative packet size per connected requestor and responder (Byte)
system.iobus.pktSize::total                      5859                       # Cumulative packet size per connected requestor and responder (Byte)
system.iobus.power_state.pwrStateResidencyTicks::UNDEFINED 16354700548000                       # Cumulative time (in ticks) in various power states (Tick)
system.iobus.reqLayer12.occupancy             2604000                       # Layer occupancy (ticks) (Tick)
system.iobus.reqLayer12.utilization               0.0                       # Layer utilization (Ratio)
system.iobus.respLayer0.occupancy             3255000                       # Layer occupancy (ticks) (Tick)
system.iobus.respLayer0.utilization               0.0                       # Layer utilization (Ratio)
system.iocache.blockedCycles::no_mshrs              0                       # number of cycles access was blocked (Cycle)
system.iocache.blockedCycles::no_targets            0                       # number of cycles access was blocked (Cycle)
system.iocache.blockedCauses::no_mshrs              0                       # number of times access was blocked (Count)
system.iocache.blockedCauses::no_targets            0                       # number of times access was blocked (Count)
system.iocache.avgBlocked::no_mshrs               nan                       # average number of cycles each access was blocked ((Cycle/Count))
system.iocache.avgBlocked::no_targets             nan                       # average number of cycles each access was blocked ((Cycle/Count))
system.iocache.replacements                         0                       # number of replacements (Count)
system.iocache.power_state.pwrStateResidencyTicks::UNDEFINED 16354700548000                       # Cumulative time (in ticks) in various power states (Tick)
system.iocache.tags.tagsInUse                       0                       # Average ticks per tags in use ((Tick/Count))
system.iocache.tags.totalRefs                       0                       # Total number of references to valid blocks. (Count)
system.iocache.tags.sampledRefs                     0                       # Sample count of references to valid blocks. (Count)
system.iocache.tags.avgRefs                       nan                       # Average number of references to valid blocks. ((Count/Count))
system.iocache.tags.warmupTick                      0                       # The tick when the warmup percentage was hit. (Tick)
system.iocache.tags.tagAccesses                     0                       # Number of tag accesses (Count)
system.iocache.tags.dataAccesses                    0                       # Number of data accesses (Count)
system.iocache.tags.power_state.pwrStateResidencyTicks::UNDEFINED 16354700548000                       # Cumulative time (in ticks) in various power states (Tick)
system.mem_ctrls.avgPriority_writebacks::samples      2736.00                       # Average QoS priority value for accepted requests (Count)
system.mem_ctrls.avgPriority_cpu.mmu.dtb_walker::samples         7.00                       # Average QoS priority value for accepted requests (Count)
system.mem_ctrls.avgPriority_cpu.mmu.itb_walker::samples 312934822.00                       # Average QoS priority value for accepted requests (Count)
system.mem_ctrls.avgPriority_cpu.inst::samples      8807.00                       # Average QoS priority value for accepted requests (Count)
system.mem_ctrls.avgPriority_cpu.data::samples      4261.00                       # Average QoS priority value for accepted requests (Count)
system.mem_ctrls.priorityMinLatency      0.000000017492                       # per QoS priority minimum request to response latency (Second)
system.mem_ctrls.priorityMaxLatency      0.001924260804                       # per QoS priority maximum request to response latency (Second)
system.mem_ctrls.numReadWriteTurnArounds          183                       # Number of turnarounds from READ to WRITE (Count)
system.mem_ctrls.numWriteReadTurnArounds          183                       # Number of turnarounds from WRITE to READ (Count)
system.mem_ctrls.numStayReadState           628002473                       # Number of times bus staying in READ state (Count)
system.mem_ctrls.numStayWriteState               2889                       # Number of times bus staying in WRITE state (Count)
system.mem_ctrls.readReqs                   312947588                       # Number of read requests accepted (Count)
system.mem_ctrls.writeReqs                       7037                       # Number of write requests accepted (Count)
system.mem_ctrls.readBursts                 312947588                       # Number of controller read bursts, including those serviced by the write queue (Count)
system.mem_ctrls.writeBursts                     7037                       # Number of controller write bursts, including those merged in the write queue (Count)
system.mem_ctrls.servicedByWrQ                     78                       # Number of controller read bursts serviced by the write queue (Count)
system.mem_ctrls.mergedWrBursts                  3914                       # Number of controller write bursts merged with an existing one (Count)
system.mem_ctrls.neitherReadNorWriteReqs            0                       # Number of requests that are neither read nor write (Count)
system.mem_ctrls.avgRdQLen                       1.00                       # Average read queue length when enqueuing ((Count/Tick))
system.mem_ctrls.avgWrQLen                      51.00                       # Average write queue length when enqueuing ((Count/Tick))
system.mem_ctrls.numRdRetry                         0                       # Number of times read queue was full causing retry (Count)
system.mem_ctrls.numWrRetry                         0                       # Number of times write queue was full causing retry (Count)
system.mem_ctrls.readPktSize::0                     0                       # Read request sizes (log2) (Count)
system.mem_ctrls.readPktSize::1                     0                       # Read request sizes (log2) (Count)
system.mem_ctrls.readPktSize::2             312943291                       # Read request sizes (log2) (Count)
system.mem_ctrls.readPktSize::3                    16                       # Read request sizes (log2) (Count)
system.mem_ctrls.readPktSize::4                     0                       # Read request sizes (log2) (Count)
system.mem_ctrls.readPktSize::5                     0                       # Read request sizes (log2) (Count)
system.mem_ctrls.readPktSize::6                  4281                       # Read request sizes (log2) (Count)
system.mem_ctrls.writePktSize::0                    0                       # Write request sizes (log2) (Count)
system.mem_ctrls.writePktSize::1                    0                       # Write request sizes (log2) (Count)
system.mem_ctrls.writePktSize::2                 4285                       # Write request sizes (log2) (Count)
system.mem_ctrls.writePktSize::3                    0                       # Write request sizes (log2) (Count)
system.mem_ctrls.writePktSize::4                    0                       # Write request sizes (log2) (Count)
system.mem_ctrls.writePktSize::5                    0                       # Write request sizes (log2) (Count)
system.mem_ctrls.writePktSize::6                 2752                       # Write request sizes (log2) (Count)
system.mem_ctrls.rdQLenPdf::0               312947509                       # What read queue length does an incoming req see (Count)
system.mem_ctrls.rdQLenPdf::1                       1                       # What read queue length does an incoming req see (Count)
system.mem_ctrls.rdQLenPdf::2                       0                       # What read queue length does an incoming req see (Count)
[...]
system.mem_ctrls.dram.rank0.pwrStateTime::SREF            0                       # Time in different power states (Tick)
system.mem_ctrls.dram.rank0.pwrStateTime::PRE_PDN            0                       # Time in different power states (Tick)
system.mem_ctrls.dram.rank0.pwrStateTime::ACT 15101531330232                       # Time in different power states (Tick)
system.mem_ctrls.dram.rank0.pwrStateTime::ACT_PDN            0                       # Time in different power states (Tick)
system.mem_ctrls.power_state.pwrStateResidencyTicks::UNDEFINED 16354700548000                       # Cumulative time (in ticks) in various power states (Tick)
system.membus.transDist::ReadReq            312944613                       # Transaction distribution (Count)
system.membus.transDist::ReadResp           312945847                       # Transaction distribution (Count)
system.membus.transDist::WriteReq                4936                       # Transaction distribution (Count)
system.membus.transDist::WriteResp               4936                       # Transaction distribution (Count)
system.membus.transDist::WritebackDirty          2415                       # Transaction distribution (Count)
system.membus.transDist::WritebackClean           351                       # Transaction distribution (Count)
system.membus.transDist::WriteClean                 2                       # Transaction distribution (Count)
system.membus.transDist::CleanEvict                69                       # Transaction distribution (Count)
system.membus.transDist::ReadExReq               3047                       # Transaction distribution (Count)
system.membus.transDist::ReadExResp              3047                       # Transaction distribution (Count)
system.membus.transDist::ReadCleanReq             773                       # Transaction distribution (Count)
system.membus.transDist::ReadSharedReq            461                       # Transaction distribution (Count)
system.membus.transDist::CleanSharedReq             2                       # Transaction distribution (Count)
system.membus.pktCount_system.cpu.icache.mem_side_port::system.realview.bootmem.port            8                       # Packet count per connected requestor and responder (Count)
system.membus.pktCount_system.cpu.icache.mem_side_port::system.mem_ctrls.port        18113                       # Packet count per connected requestor and responder (Count)
system.membus.pktCount_system.cpu.icache.mem_side_port::total        18121                       # Packet count per connected requestor and responder (Count)
system.membus.pktCount_system.cpu.dcache.mem_side_port::system.bridge.cpu_side_port         3906                       # Packet count per connected requestor and responder (Count)
system.membus.pktCount_system.cpu.dcache.mem_side_port::system.mem_ctrls.port        18812                       # Packet count per connected requestor and responder (Count)
system.membus.pktCount_system.cpu.dcache.mem_side_port::total        22718                       # Packet count per connected requestor and responder (Count)
system.membus.pktCount_system.cpu.mmu.itb_walker.port::system.mem_ctrls.port    625869646                       # Packet count per connected requestor and responder (Count)
system.membus.pktCount_system.cpu.mmu.itb_walker.port::total    625869646                       # Packet count per connected requestor and responder (Count)
system.membus.pktCount_system.cpu.mmu.dtb_walker.port::system.mem_ctrls.port           14                       # Packet count per connected requestor and responder (Count)
system.membus.pktCount_system.cpu.mmu.dtb_walker.port::total           14                       # Packet count per connected requestor and responder (Count)
system.membus.pktCount::total               625910499                       # Packet count per connected requestor and responder (Count)
system.membus.pktSize_system.cpu.icache.mem_side_port::system.realview.bootmem.port           16                       # Cumulative packet size per connected requestor and responder (Byte)
system.membus.pktSize_system.cpu.icache.mem_side_port::system.mem_ctrls.port       104368                       # Cumulative packet size per connected requestor and responder (Byte)
system.membus.pktSize_system.cpu.icache.mem_side_port::total       104384                       # Cumulative packet size per connected requestor and responder (Byte)
system.membus.pktSize_system.cpu.dcache.mem_side_port::system.bridge.cpu_side_port         5859                       # Cumulative packet size per connected requestor and responder (Byte)
system.membus.pktSize_system.cpu.dcache.mem_side_port::system.mem_ctrls.port       397880                       # Cumulative packet size per connected requestor and responder (Byte)
system.membus.pktSize_system.cpu.dcache.mem_side_port::total       403739                       # Cumulative packet size per connected requestor and responder (Byte)
system.membus.pktSize_system.cpu.mmu.itb_walker.port::system.mem_ctrls.port   1251739292                       # Cumulative packet size per connected requestor and responder (Byte)
system.membus.pktSize_system.cpu.mmu.itb_walker.port::total   1251739292                       # Cumulative packet size per connected requestor and responder (Byte)
system.membus.pktSize_system.cpu.mmu.dtb_walker.port::system.mem_ctrls.port           28                       # Cumulative packet size per connected requestor and responder (Byte)
system.membus.pktSize_system.cpu.mmu.dtb_walker.port::total           28                       # Cumulative packet size per connected requestor and responder (Byte)
system.membus.pktSize::total               1252247443                       # Cumulative packet size per connected requestor and responder (Byte)
system.membus.snoops                                0                       # Total snoops (Count)
system.membus.snoopTraffic                          0                       # Total snoop traffic (Byte)
system.membus.snoopFanout::samples          312953832                       # Request fanout histogram (Count)
system.membus.snoopFanout::mean              0.000000                       # Request fanout histogram (Count)
system.membus.snoopFanout::stdev             0.000344                       # Request fanout histogram (Count)
system.membus.snoopFanout::underflows               0      0.00%      0.00% # Request fanout histogram (Count)
system.membus.snoopFanout::0                312953795    100.00%    100.00% # Request fanout histogram (Count)
system.membus.snoopFanout::1                       37      0.00%    100.00% # Request fanout histogram (Count)
system.membus.snoopFanout::2                        0      0.00%    100.00% # Request fanout histogram (Count)
system.membus.snoopFanout::3                        0      0.00%    100.00% # Request fanout histogram (Count)
system.membus.snoopFanout::overflows                0      0.00%    100.00% # Request fanout histogram (Count)
system.membus.snoopFanout::min_value                0                       # Request fanout histogram (Count)
system.membus.snoopFanout::max_value                1                       # Request fanout histogram (Count)
system.membus.snoopFanout::total            312953832                       # Request fanout histogram (Count)
system.membus.badaddr_responder.power_state.pwrStateResidencyTicks::UNDEFINED 16354700548000                       # Cumulative time (in ticks) in various power states (Tick)
system.membus.power_state.pwrStateResidencyTicks::UNDEFINED 16354700548000                       # Cumulative time (in ticks) in various power states (Tick)
system.membus.reqLayer0.occupancy             2604000                       # Layer occupancy (ticks) (Tick)
system.membus.reqLayer0.utilization               0.0                       # Layer utilization (Ratio)
system.membus.reqLayer16.occupancy       625591963171                       # Layer occupancy (ticks) (Tick)
system.membus.reqLayer16.utilization              0.0                       # Layer utilization (Ratio)
system.membus.reqLayer2.occupancy                4000                       # Layer occupancy (ticks) (Tick)
system.membus.reqLayer2.utilization               0.0                       # Layer utilization (Ratio)
system.membus.respLayer3.occupancy           24437476                       # Layer occupancy (ticks) (Tick)
system.membus.respLayer3.utilization              0.0                       # Layer utilization (Ratio)
system.membus.respLayer4.occupancy           27677548                       # Layer occupancy (ticks) (Tick)
system.membus.respLayer4.utilization              0.0                       # Layer utilization (Ratio)
system.membus.respLayer5.occupancy       781818297888                       # Layer occupancy (ticks) (Tick)
system.membus.respLayer5.utilization              0.0                       # Layer utilization (Ratio)
system.membus.respLayer6.occupancy              15956                       # Layer occupancy (ticks) (Tick)
system.membus.respLayer6.utilization              0.0                       # Layer utilization (Ratio)
system.membus.snoop_filter.totRequests           7118                       # Total number of requests made to the snoop filter. (Count)
system.membus.snoop_filter.hitSingleRequests         2855                       # Number of requests hitting in the snoop filter with a single holder of the requested data. (Count)
system.membus.snoop_filter.hitMultiRequests           19                       # Number of requests hitting in the snoop filter with multiple (>1) holders of the requested data. (Count)
system.membus.snoop_filter.totSnoops                0                       # Total number of snoops made to the snoop filter. (Count)
system.membus.snoop_filter.hitSingleSnoops            0                       # Number of snoops hitting in the snoop filter with a single holder of the requested data. (Count)
system.membus.snoop_filter.hitMultiSnoops            0                       # Number of snoops hitting in the snoop filter with multiple (>1) holders of the requested data. (Count)
system.pci_ide.disks.IdeDisk.dmaReadFullPages            0                       # Number of full page size DMA reads (not PRD). (Count)
system.pci_ide.disks.IdeDisk.dmaReadBytes            0                       # Number of bytes transfered via DMA reads (not PRD). (Byte)
system.pci_ide.disks.IdeDisk.dmaReadTxs             0                       # Number of DMA read transactions (not PRD). (Count)
system.pci_ide.disks.IdeDisk.dmaWriteFullPages            0                       # Number of full page size DMA writes. (Count)
system.pci_ide.disks.IdeDisk.dmaWriteBytes            0                       # Number of bytes transfered via DMA writes. (Byte)
system.pci_ide.disks.IdeDisk.dmaWriteTxs            0                       # Number of DMA write transactions. (Count)
system.pci_ide.power_state.pwrStateResidencyTicks::UNDEFINED 16354700548000                       # Cumulative time (in ticks) in various power states (Tick)
system.realview.bootmem.bytesRead::cpu.inst           16                       # Number of bytes read from this memory (Byte)
system.realview.bootmem.bytesRead::total           16                       # Number of bytes read from this memory (Byte)
system.realview.bootmem.bytesInstRead::cpu.inst           16                       # Number of instructions bytes read from this memory (Byte)
system.realview.bootmem.bytesInstRead::total           16                       # Number of instructions bytes read from this memory (Byte)
system.realview.bootmem.numReads::cpu.inst            4                       # Number of read requests responded to by this memory (Count)
system.realview.bootmem.numReads::total             4                       # Number of read requests responded to by this memory (Count)
system.realview.bootmem.bwRead::cpu.inst            1                       # Total read bandwidth from this memory ((Byte/Second))
system.realview.bootmem.bwRead::total               1                       # Total read bandwidth from this memory ((Byte/Second))
system.realview.bootmem.bwInstRead::cpu.inst            1                       # Instruction read bandwidth from this memory ((Byte/Second))
system.realview.bootmem.bwInstRead::total            1                       # Instruction read bandwidth from this memory ((Byte/Second))
system.realview.bootmem.bwTotal::cpu.inst            1                       # Total bandwidth to/from this memory ((Byte/Second))
system.realview.bootmem.bwTotal::total              1                       # Total bandwidth to/from this memory ((Byte/Second))
system.realview.bootmem.power_state.pwrStateResidencyTicks::UNDEFINED 16354700548000                       # Cumulative time (in ticks) in various power states (Tick)
system.realview.clock24MHz.clock                41667                       # Clock period in ticks (Tick)
system.realview.clock32KHz.clock             31250000                       # Clock period in ticks (Tick)
system.realview.cxlmemdevice1.power_state.pwrStateResidencyTicks::UNDEFINED 16354700548000                       # Cumulative time (in ticks) in various power states (Tick)
system.realview.cxlmemdevice2.power_state.pwrStateResidencyTicks::UNDEFINED 16354700548000                       # Cumulative time (in ticks) in various power states (Tick)
system.realview.dcc.osc_cpu.clock               16667                       # Clock period in ticks (Tick)
system.realview.dcc.osc_ddr.clock               25000                       # Clock period in ticks (Tick)
system.realview.dcc.osc_hsbm.clock              25000                       # Clock period in ticks (Tick)
system.realview.dcc.osc_pxl.clock               42105                       # Clock period in ticks (Tick)
system.realview.dcc.osc_smb.clock               20000                       # Clock period in ticks (Tick)
system.realview.dcc.osc_sys.clock               16667                       # Clock period in ticks (Tick)
system.realview.el2_watchdog.power_state.pwrStateResidencyTicks::UNDEFINED 16354700548000                       # Cumulative time (in ticks) in various power states (Tick)
system.realview.energy_ctrl.power_state.pwrStateResidencyTicks::UNDEFINED 16354700548000                       # Cumulative time (in ticks) in various power states (Tick)
system.realview.flash0.power_state.pwrStateResidencyTicks::UNDEFINED 16354700548000                       # Cumulative time (in ticks) in various power states (Tick)
system.realview.flash1.power_state.pwrStateResidencyTicks::UNDEFINED 16354700548000                       # Cumulative time (in ticks) in various power states (Tick)
system.realview.generic_timer_mem.frames0.power_state.pwrStateResidencyTicks::UNDEFINED 16354700548000                       # Cumulative time (in ticks) in various power states (Tick)
system.realview.generic_timer_mem.frames1.power_state.pwrStateResidencyTicks::UNDEFINED 16354700548000                       # Cumulative time (in ticks) in various power states (Tick)
system.realview.generic_timer_mem.power_state.pwrStateResidencyTicks::UNDEFINED 16354700548000                       # Cumulative time (in ticks) in various power states (Tick)
system.realview.gic.power_state.pwrStateResidencyTicks::UNDEFINED 16354700548000                       # Cumulative time (in ticks) in various power states (Tick)
system.realview.gicv2m.power_state.pwrStateResidencyTicks::UNDEFINED 16354700548000                       # Cumulative time (in ticks) in various power states (Tick)
system.realview.io_voltage.voltage           3.300000                       # Voltage in Volts (Volt)
system.realview.kmi0.power_state.pwrStateResidencyTicks::UNDEFINED 16354700548000                       # Cumulative time (in ticks) in various power states (Tick)
system.realview.kmi1.power_state.pwrStateResidencyTicks::UNDEFINED 16354700548000                       # Cumulative time (in ticks) in various power states (Tick)
system.realview.mcc.osc_clcd.clock              42105                       # Clock period in ticks (Tick)
system.realview.mcc.osc_mcc.clock               20000                       # Clock period in ticks (Tick)
system.realview.mcc.osc_peripheral.clock        41667                       # Clock period in ticks (Tick)
system.realview.mcc.osc_system_bus.clock        41667                       # Clock period in ticks (Tick)
system.realview.non_trusted_sram.power_state.pwrStateResidencyTicks::UNDEFINED 16354700548000                       # Cumulative time (in ticks) in various power states (Tick)
system.realview.pci_host.power_state.pwrStateResidencyTicks::UNDEFINED 16354700548000                       # Cumulative time (in ticks) in various power states (Tick)
system.realview.pwr_ctrl.power_state.pwrStateResidencyTicks::UNDEFINED 16354700548000                       # Cumulative time (in ticks) in various power states (Tick)
system.realview.realview_io.power_state.pwrStateResidencyTicks::UNDEFINED 16354700548000                       # Cumulative time (in ticks) in various power states (Tick)
system.realview.rtc.power_state.pwrStateResidencyTicks::UNDEFINED 16354700548000                       # Cumulative time (in ticks) in various power states (Tick)
system.realview.system_watchdog.power_state.pwrStateResidencyTicks::UNDEFINED 16354700548000                       # Cumulative time (in ticks) in various power states (Tick)
system.realview.trusted_dram.power_state.pwrStateResidencyTicks::UNDEFINED 16354700548000                       # Cumulative time (in ticks) in various power states (Tick)
system.realview.trusted_sram.power_state.pwrStateResidencyTicks::UNDEFINED 16354700548000                       # Cumulative time (in ticks) in various power states (Tick)
system.realview.trusted_watchdog.power_state.pwrStateResidencyTicks::UNDEFINED 16354700548000                       # Cumulative time (in ticks) in various power states (Tick)
system.realview.uart0.power_state.pwrStateResidencyTicks::UNDEFINED 16354700548000                       # Cumulative time (in ticks) in various power states (Tick)
system.realview.uart1.power_state.pwrStateResidencyTicks::UNDEFINED 16354700548000                       # Cumulative time (in ticks) in various power states (Tick)
system.realview.uart2.power_state.pwrStateResidencyTicks::UNDEFINED 16354700548000                       # Cumulative time (in ticks) in various power states (Tick)
system.realview.uart3.power_state.pwrStateResidencyTicks::UNDEFINED 16354700548000                       # Cumulative time (in ticks) in various power states (Tick)
system.realview.vgic.power_state.pwrStateResidencyTicks::UNDEFINED 16354700548000                       # Cumulative time (in ticks) in various power states (Tick)
system.realview.vio0.power_state.pwrStateResidencyTicks::UNDEFINED 16354700548000                       # Cumulative time (in ticks) in various power states (Tick)
system.realview.vio1.power_state.pwrStateResidencyTicks::UNDEFINED 16354700548000                       # Cumulative time (in ticks) in various power states (Tick)
system.realview.vram.power_state.pwrStateResidencyTicks::UNDEFINED 16354700548000                       # Cumulative time (in ticks) in various power states (Tick)
system.realview.watchdog.power_state.pwrStateResidencyTicks::UNDEFINED 16354700548000                       # Cumulative time (in ticks) in various power states (Tick)
system.voltage_domain.voltage                       1                       # Voltage in Volts (Volt)
system.workload.inst.arm                            0                       # number of arm instructions executed (Count)
system.workload.inst.quiesce                        0                       # number of quiesce instructions executed (Count)

---------- End Simulation Statistics   ----------
